models/IEEE_8500_Bus-G/Master.DSS
Clear
New Circuit.ieee8500


Redirect Vsource.dss
Redirect LineCode.DSS
Redirect XfmrCode.DSS
Redirect LoadShape.DSS
Redirect GrowthShape.DSS
Redirect TCC_Curve.DSS
Redirect Spectrum.DSS
Redirect Line.DSS
Redirect Load.DSS
Redirect Transformer.DSS
Redirect RegControl.DSS
Redirect Capacitor.DSS
Redirect Reactor.DSS
Redirect CapControl.DSS
MakeBusList
Redirect BusVoltageBases.dss  ! set voltage bases
Buscoords buscoords.dss
