models/IEEE_8500_Bus-G/Line.DSS
New "Line.hvmv_sub_connector" bus1=_hvmv_sub_lsb bus2=hvmv_sub_48332 length=0.001 units=none r1=0.001 r0=0.001 x1=0.01 x0=0.01 C1=0 C0=0
New "Line.ln5502549-1" bus1=m1009763.2 bus2=l2673322.2 length=0.03217561 units=km linecode=1PH-x4_ACSRx4_ACSR normamps=400 emergamps=600
New "Line.ln6259988-1" bus1=m1069148.3 bus2=l2673309.3 length=0.1072341 units=km linecode=1PH-xx4_ACSR4_ACSR normamps=400 emergamps=600
New "Line.ln6077796-1" bus1=m1069588.2 bus2=l2804270.2 length=0.01144634 units=km linecode=1PH-x4_ACSRx4_ACSR normamps=400 emergamps=600
New "Line.ln5835135-2" bus1=m3036164.2 bus2=l2935553.2 length=0.04775163 units=km linecode=1PH-x4_ACSRx4_ACSR normamps=400 emergamps=600
New "Line.ln5896826-1" bus1=m1209749.2 bus2=l2748840.2 length=0.2031814 units=km linecode=1PH-x2_ACSRx2_ACSR normamps=400 emergamps=600
New "Line.ln5714038-1" bus1=m1108264.2 bus2=m1108263.2 length=0.0999943 units=km linecode=1PH-x4_ACSRx4_WPAL normamps=400 emergamps=600
New "Line.ln5653457-1" bus1=l3085398 bus2=m1026891 length=0.0857083 units=km linecode=3PH_H-4_ACSR4_ACSR4_ACSR4_ACSR normamps=400 emergamps=600
New "Line.ln5835173-1" bus1=l3216367 bus2=m1069468 length=0.04134682 units=km linecode=3PH_H-2/0_ACSR2/0_ACSR2/0_ACSR2_ACSR normamps=400 emergamps=600
New "Line.ln6321415-1" bus1=m1142800.2 bus2=m1142799.2 length=0.09330287 units=km linecode=1PH-x2_ACSRx2_ACSR normamps=400 emergamps=600
New "Line.ln5565092-1" bus1=m1047592.3 bus2=p827512.3 length=0.003656151 units=km linecode=1PH-xx4_ACSR4_ACSR normamps=400 emergamps=600
New "Line.ln6073648-1" bus1=m1047339.1 bus2=p895104.1 length=0.007739728 units=km linecode=1PH-4_WPALxx2_WPAL normamps=400 emergamps=600
New "Line.ln5774457-1" bus1=m1026915 bus2=m1026920 length=0.04084655 units=km linecode=3PH_H-4_ACSR2_ACSR2_ACSR4_WPAL normamps=400 emergamps=600
New "Line.ln5534966-3" bus1=n1138596.1 bus2=l3254207.1 length=0.02449135 units=km linecode=1PH-4_ACSRxx4_ACSR normamps=400 emergamps=600
New "Line.ln5859996-1" bus1=m1069464.2 bus2=p873787.2 length=0.006235546 units=km linecode=1PH-x2_ACSRx2_ACSR normamps=400 emergamps=600
New "Line.ln6138610-2" bus1=n1144665 bus2=m1047515 length=0.02738852 units=km linecode=3PH_H-4_ACSR4_ACSR4_ACSR4_WPAL normamps=400 emergamps=600
New "Line.ln6258435-3" bus1=n1137002.1 bus2=m1047707.1 length=0.09248097 units=km linecode=1PH-2_ACSRxx2_ACSR normamps=400 emergamps=600
New "Line.ln5804790-1" bus1=l2729406.3 bus2=l2897768.3 length=0.1947726 units=km linecode=1PH-xx4_ACSR4_ACSR normamps=400 emergamps=600
New "Line.ln6900591-14" bus1=l3649301.1 bus2=l3649302.1 length=0.0630605 units=km linecode=1PH-2_ACSRxx2_ACSR normamps=400 emergamps=600
New "Line.ln6409873-1" bus1=l2970842.2 bus2=m1089113.2 length=0.07187752 units=km linecode=1PH-x4_ACSRx4_ACSR normamps=400 emergamps=600
New "Line.ln6014135-1" bus1=m1047312.1 bus2=p893163.1 length=0.004144648 units=km linecode=1PH-4_WPALxx4_ACSR normamps=400 emergamps=600
New "Line.ln6077784-1" bus1=l2822871 bus2=m1026872 length=0.06014449 units=km linecode=3PH_H-2/0_ACSR2/0_ACSR2/0_ACSR2_ACSR normamps=400 emergamps=600
New "Line.ln5744338-1" bus1=m1026312.2 bus2=l2973163.2 length=0.05348704 units=km linecode=1PH-x4_ACSRx4_WPAL normamps=400 emergamps=600
New "Line.ln6991381-4" bus1=l3728038.1 bus2=l3728039.1 length=0.07910882 units=km linecode=1PH-2_ACSRxx2_ACSR normamps=400 emergamps=600
New "Line.ln5774480-1" bus1=m1069567.2 bus2=m1069582.2 length=0.1529554 units=km linecode=1PH-x4_ACSRx4_ACSR normamps=400 emergamps=600
New "Line.ln5986938-3" bus1=n1140830.1 bus2=l3216351.1 length=0.00873965 units=km linecode=1PH-4_ACSRxx4_ACSR normamps=400 emergamps=600
New "Line.ln5894230-1" bus1=l2952007.3 bus2=l2861158.3 length=0.1265465 units=km linecode=1PH-xx4_ACSR4_ACSR normamps=400 emergamps=600
New "Line.ln5683858-3" bus1=n1140827 bus2=m1026726 length=0.017269 units=km linecode=3PH_H-4_ACSR4_ACSR4_ACSR4_ACSR normamps=400 emergamps=600
New "Line.ln5920279-5" bus1=l2730106 bus2=n1142099 length=0.02236903 units=km linecode=3PH_H-397_ACSR397_ACSR397_ACSR2/0_ACSR normamps=400 emergamps=600
New "Line.ln6439600-1" bus1=m1026658.1 bus2=l3172805.1 length=0.1066804 units=km linecode=1PH-2_ACSRxx2_ACSR normamps=400 emergamps=600
New "Line.ln5589097-1" bus1=p895112.1 bus2=l3048962.1 length=0.02560416 units=km linecode=1PH-2_ACSRxx4_ACSR normamps=400 emergamps=600
New "Line.ln5651975-1" bus1=l2991914 bus2=m1047503 length=0.03565006 units=km linecode=3PH_H-4_ACSR4_ACSR4_ACSR4_ACSR normamps=400 emergamps=600
New "Line.ln5865236-1" bus1=m1047751.1 bus2=l2973154.1 length=0.00930772 units=km linecode=1PH-4_ACSRxx4_ACSR normamps=400 emergamps=600
New "Line.ln5593232-1" bus1=l3010565.3 bus2=l2897775.3 length=0.140826 units=km linecode=1PH-xx2_ACSR2_ACSR normamps=400 emergamps=600
New "Line.ln5740283-1" bus1=m1125955.3 bus2=m1125957.3 length=0.00682612 units=km linecode=1PH-xx4_WPAL4_WPAL normamps=400 emergamps=600
New "Line.ln6106559-1" bus1=m1069640.2 bus2=l2804269.2 length=0.101145 units=km linecode=1PH-x4_ACSRx4_ACSR normamps=400 emergamps=600
New "Line.ln5714056-3" bus1=m1026702 bus2=n1139551 length=0.1287347 units=km linecode=3PH_H-4_ACSR4_ACSR4_ACSR4_WPAL normamps=400 emergamps=600
New "Line.ln5985355-3" bus1=n1136355.2 bus2=l2783231.2 length=0.0724548 units=km linecode=1PH-x4_WPALx4_WPAL normamps=400 emergamps=600
New "Line.ln5531956-1" bus1=l2748143.1 bus2=l3251854.1 length=0.06705608 units=km linecode=1PH-2_ACSRxx2_ACSR normamps=400 emergamps=600
New "Line.ln5650048-1" bus1=m1069610.2 bus2=m1069600.2 length=0.06095971 units=km linecode=1PH-x2_ACSRx2_ACSR normamps=400 emergamps=600
New "Line.ln6290203-1" bus1=m1069424 bus2=l2935549 length=0.08859631 units=km linecode=3PH_H-2/0_ACSR2/0_ACSR2/0_ACSR2_ACSR normamps=400 emergamps=600
New "Line.ln6134414-1" bus1=p895089.3 bus2=l3235242.3 length=0.06050704 units=km linecode=1PH-xx2_ACSR2_ACSR normamps=400 emergamps=600
New "Line.ln6259998-2" bus1=m1026795.3 bus2=n1140522.3 length=0.01355751 units=km linecode=1PH-xx2_ACSR2_ACSR normamps=400 emergamps=600
New "Line.ln6078767-1" bus1=l3030199 bus2=m1125934 length=0.02929477 units=km linecode=3PH_H-397_ACSR397_ACSR397_ACSR2/0_ACSR normamps=400 emergamps=600
New "Line.ln6017300-1" bus1=m1069189.3 bus2=l2860487.3 length=0.08698713 units=km linecode=1PH-xx4_WPAL4_WPAL normamps=400 emergamps=600
New "Line.ln8979257-2" bus1=221-312488 bus2=m1089183 length=0.0135168 units=km linecode=3P_1/0_AXNJ_DB normamps=190 emergamps=190
New "Line.ln81048109-1" bus1=m1108464.2 bus2=l3102286.2 length=0.1074556 units=km linecode=1P_1/0_AXNJ_DB normamps=220 emergamps=220
New "Line.293471" bus1=f739845 bus2=293471 length=0.03048 units=km linecode=3PH_H-4_ACSR4_ACSR4_ACSR4_ACSR normamps=400 emergamps=600
New "Line.ln5534965-2" bus1=p827499.1 bus2=n1139254.1 length=0.006376053 units=km linecode=1PH-4_ACSRxx4_ACSR normamps=400 emergamps=600
New "Line.ln5655683-1" bus1=m1026657.1 bus2=m1026656.1 length=0.006010467 units=km linecode=1PH-4_ACSRxx4_ACSR normamps=400 emergamps=600
New "Line.ln5686247-1" bus1=m1108299.2 bus2=m1108300.2 length=0.006796901 units=km linecode=1PH-x4_ACSRx4_ACSR normamps=400 emergamps=600
New "Line.ln6048642-1" bus1=l3198355.2 bus2=l2805037.2 length=0.1108157 units=km linecode=1PH-x4_WPALx4_WPAL normamps=400 emergamps=600
New "Line.ln5928544-3" bus1=n1137994.3 bus2=m1069484.3 length=0.05637094 units=km linecode=1PH-xx4_WPAL4_ACSR normamps=400 emergamps=600
New "Line.ln6108172-1" bus1=l2860504.1 bus2=l2860493.1 length=0.2083813 units=km linecode=1PH-2_ACSRxx2_ACSR normamps=400 emergamps=600
New "Line.ln5532754-1" bus1=m1026783 bus2=m1026780 length=0.01791634 units=km linecode=3PH_H-4_ACSR4_ACSR4_ACSR4_WPAL normamps=400 emergamps=600
New "Line.ln5591834-1" bus1=p895111.3 bus2=l2895496.3 length=0.06985534 units=km linecode=1PH-xx2_ACSR2_ACSR normamps=400 emergamps=600
New "Line.ln6347196-2" bus1=n1140819 bus2=m1026700 length=0.02693061 units=km linecode=3PH_H-4_ACSR4_ACSR4_ACSR4_WPAL normamps=400 emergamps=600
New "Line.ln5532741-1" bus1=m1089173.3 bus2=l2935551.3 length=0.06085765 units=km linecode=1PH-xx4_WPAL4_WPAL normamps=400 emergamps=600
New "Line.ln5804803-1" bus1=m1026344.1 bus2=m1026364.1 length=0.2946499 units=km linecode=1PH-2_ACSRxx2_ACSR normamps=400 emergamps=600
New "Line.ln6169248-1" bus1=l2879070 bus2=l3216345 length=0.08930086 units=km linecode=3PH_H-2/0_ACSR2/0_ACSR2/0_ACSR2_ACSR normamps=400 emergamps=600
New "Line.ln5532786-2" bus1=m1069428.2 bus2=n1139257.2 length=0.01647658 units=km linecode=1PH-x2_ACSRx1/0_TPX normamps=400 emergamps=600
New "Line.ln5744339-1" bus1=l2991919.1 bus2=m1026361.1 length=0.08529116 units=km linecode=1PH-4_WPALxx4_ACSR normamps=400 emergamps=600
New "Line.ln5531255-3" bus1=n1147857.1 bus2=m1009742.1 length=0.05475298 units=km linecode=1PH-4_ACSRxx4_ACSR normamps=400 emergamps=600
New "Line.ln5926308-2" bus1=q14412 bus2=m1047325 length=0.03394498 units=km linecode=3PH_H-4_ACSR4_ACSR4_ACSR4_ACSR normamps=400 emergamps=600
New "Line.ln5683856-3" bus1=n1139263.1 bus2=l3048227.1 length=0.0259869 units=km linecode=1PH-4_ACSRxx4_ACSR normamps=400 emergamps=600
New "Line.ln6171502-1" bus1=p827506.1 bus2=m1069469.1 length=0.007050168 units=km linecode=1PH-4_ACSRxx4_ACSR normamps=400 emergamps=600
New "Line.ln5593228-1" bus1=m1027019.2 bus2=l2785522.2 length=0.06039064 units=km linecode=1PH-x2_ACSRx2_ACSR normamps=400 emergamps=600
New "Line.ln6380800-1" bus1=l3216338.2 bus2=l2973146.2 length=0.05858114 units=km linecode=1PH-x2_ACSRx2_ACSR normamps=400 emergamps=600
New "Line.ln6199525-2" bus1=m3037452.1 bus2=l2973164.1 length=0.07145179 units=km linecode=1PH-4_ACSRxx4_ACSR normamps=400 emergamps=600
New "Line.ln5772710-2" bus1=l3120376.1 bus2=m1026925.1 length=0.08933255 units=km linecode=1PH-4_ACSRxx4_WPAL normamps=400 emergamps=600
New "Line.ln8961760-1" bus1=m1047612.3 bus2=p828360.3 length=0.005371644 units=km linecode=1P_1/0_AXNJ_DB normamps=220 emergamps=220
New "Line.ln6047556-1" bus1=m1089195.3 bus2=l3141393.3 length=0.112734 units=km linecode=1PH-xx2_ACSR2_ACSR normamps=400 emergamps=600
New "Line.ln6138603-1" bus1=m1026946.2 bus2=m1026940.2 length=0.1285698 units=km linecode=1PH-x4_ACSRx4_ACSR normamps=400 emergamps=600
New "Line.ln6108139-1" bus1=m1047471.2 bus2=l3216349.2 length=0.0183997 units=km linecode=1PH-x2_ACSRx2_ACSR normamps=400 emergamps=600
New "Line.ln6388581-2" bus1=m1047401.1 bus2=l2748132.1 length=0.05605623 units=km linecode=1PH-4_ACSRxx4_ACSR normamps=400 emergamps=600
New "Line.ln5774460-1" bus1=l3122820.1 bus2=l3141398.1 length=0.05940873 units=km linecode=1PH-2_ACSRxx2_ACSR normamps=400 emergamps=600
New "Line.ln5624387-1" bus1=m1108360.3 bus2=l3048968.3 length=0.05497669 units=km linecode=1PH-xx4_ACSR4_ACSR normamps=400 emergamps=600
New "Line.ln6137087-1" bus1=l2801950.3 bus2=m1069224.3 length=0.032899 units=km linecode=1PH-xx4_ACSR1/0_TPX normamps=400 emergamps=600
New "Line.ln6077809-1" bus1=l2766746.3 bus2=m1027073.3 length=0.1104796 units=km linecode=1PH-xx2_ACSR2_ACSR normamps=400 emergamps=600
New "Line.ln6440079-1" bus1=l2895496.3 bus2=m1142873.3 length=0.05056126 units=km linecode=1PH-xx2_ACSR2_ACSR normamps=400 emergamps=600
New "Line.ln5804794-1" bus1=m1069181.1 bus2=l2973151.1 length=0.07543264 units=km linecode=1PH-4_ACSRxx4_ACSR normamps=400 emergamps=600
New "Line.ln5654484-1" bus1=l3179682.3 bus2=l2786274.3 length=0.027729 units=km linecode=1PH-xx4_ACSR4_ACSR normamps=400 emergamps=600
New "Line.ln5774465-1" bus1=l3066816.1 bus2=m1026667.1 length=0.1214624 units=km linecode=1PH-2_ACSRxx2_ACSR normamps=400 emergamps=600
New "Line.ln5473349-1" bus1=m1108529 bus2=m1108532 length=0.02480893 units=km linecode=3PH_H-397_ACSR397_ACSR397_ACSR2/0_ACSR normamps=400 emergamps=600
New "Line.ln6169253-1" bus1=l2766723.1 bus2=l3122822.1 length=0.05715814 units=km linecode=1PH-4_ACSRxx4_ACSR normamps=400 emergamps=600
New "Line.ln6350536-1" bus1=l2673312.1 bus2=l3235247.1 length=0.1662533 units=km linecode=1PH-2_ACSRxx2_ACSR normamps=400 emergamps=600
New "Line.ln6048523-1" bus1=m1166391.3 bus2=l3254873.3 length=0.1061747 units=km linecode=1PH-xx4_WPAL4_ACSR normamps=400 emergamps=600
New "Line.ln5594152-1" bus1=l2861157.3 bus2=p901951.3 length=0.1213488 units=km linecode=1PH-xx2_ACSR2_ACSR normamps=400 emergamps=600
New "Line.ln5865248-1" bus1=m1047346 bus2=m1047345 length=0.04314574 units=km linecode=3PH_H-4_WPAL4_WPAL4_WPAL4_ACSR normamps=400 emergamps=600
New "Line.ln6046143-1" bus1=l2989596.2 bus2=l2822873.2 length=0.08861531 units=km linecode=1PH-x4_WPALx4_ACSR normamps=400 emergamps=600
New "Line.ln5803287-1" bus1=m1108328.3 bus2=l2875754.3 length=0.02126716 units=km linecode=1PH-xx2_ACSR2_ACSR normamps=400 emergamps=600
New "Line.ln5589094-1" bus1=l2786204.3 bus2=m1209819.3 length=0.07204356 units=km linecode=1PH-xx4_ACSR4_ACSR normamps=400 emergamps=600
New "Line.ln5954983-1" bus1=p901972.1 bus2=m1009726.1 length=0.09008325 units=km linecode=1PH-4_WPALxx4_WPAL normamps=400 emergamps=600
New "Line.ln5924696-2" bus1=m1047702.1 bus2=n1137001.1 length=0.04266303 units=km linecode=1PH-2_ACSRxx2_ACSR normamps=400 emergamps=600
New "Line.ln6506311-4" bus1=l2767340 bus2=m3037449 length=0.001937451 units=km linecode=3PH_H-4_WPAL4_WPAL4_WPAL4_WPAL normamps=400 emergamps=600
New "Line.ln5653493-1" bus1=m1047457.2 bus2=l2710546.2 length=0.04011955 units=km linecode=1PH-x2_ACSRx2_ACSR normamps=400 emergamps=600
New "Line.ln5684836-1" bus1=l2674027 bus2=l2692633 length=0.06788178 units=km linecode=3PH_H-397_ACSR397_ACSR397_ACSR2/0_ACSR normamps=400 emergamps=600
New "Line.ln5715016-3" bus1=n1142108.1 bus2=l2674051.1 length=0.07367862 units=km linecode=1PH-2_ACSRxx2_ACSR normamps=400 emergamps=600
New "Line.ln6138614-1" bus1=m1069135 bus2=r18242 length=0.07099026 units=km linecode=3PH_H-4_WPAL4_WPAL4_WPAL4_WPAL normamps=400 emergamps=600
New "Line.ln6077781-2" bus1=m1047534 bus2=n1136663 length=0.1147357 units=km linecode=3PH_H-2/0_ACSR2/0_ACSR2/0_ACSR2_ACSR normamps=400 emergamps=600
New "Line.ln5675121-1" bus1=m1108508.3 bus2=l3097861.3 length=0.09143977 units=km linecode=1PH-xx2_ACSR2_ACSR normamps=400 emergamps=600
New "Line.ln5773046-1" bus1=m1069560.2 bus2=m1069567.2 length=0.08142822 units=km linecode=1PH-x4_ACSRx4_ACSR normamps=400 emergamps=600
New "Line.ln6380809-2" bus1=l2973153 bus2=n1136998 length=0.01052854 units=km linecode=3PH_H-4_WPAL4_WPAL4_WPAL4_WPAL normamps=400 emergamps=600
New "Line.ln6018326-1" bus1=l2898515.3 bus2=m1166387.3 length=0.05960587 units=km linecode=1PH-xx4_ACSR4_ACSR normamps=400 emergamps=600
New "Line.ln5472356-1" bus1=m1047442.2 bus2=l3235250.2 length=0.06450029 units=km linecode=1PH-x4_WPALx4_WPAL normamps=400 emergamps=600
New "Line.ln6139641-1" bus1=m1142871 bus2=m1142874 length=0.03815269 units=km linecode=3PH_H-397_ACSR397_ACSR397_ACSR2/0_ACSR normamps=400 emergamps=600
New "Line.ln6018341-1" bus1=l2955081 bus2=m1108315 length=0.09468487 units=km linecode=3PH_H-397_ACSR397_ACSR397_ACSR2/0_ACSR normamps=400 emergamps=600
New "Line.ln6017302-1" bus1=l2973162 bus2=m1026333 length=0.05315063 units=km linecode=3PH_H-4_WPAL4_WPAL4_WPAL4_ACSR normamps=400 emergamps=600
New "Line.ln6199505-1" bus1=m1009832.2 bus2=l2860479.2 length=0.03604679 units=km linecode=1PH-x4_ACSRx4_ACSR normamps=400 emergamps=600
New "Line.ln5682327-1" bus1=m1026854.1 bus2=p901894.1 length=0.005924616 units=km linecode=1PH-4_ACSRxx4_ACSR normamps=400 emergamps=600
New "Line.ln6290243-1" bus1=m1026485.2 bus2=m1026492.2 length=0.06590725 units=km linecode=1PH-x2_ACSRx2_ACSR normamps=400 emergamps=600
New "Line.x8223_48332_sw" bus1=d6413567-3_int bus2=e182724 r1=1 x1=1 r0=1 x0=1 length=0.001 ! sw deleted
New "Line.ln6413567-3" bus1=n1139541 bus2=d6413567-3_int length=0.01496679 units=km linecode=3PH_H-4_ACSR4_ACSR4_ACSR4_WPAL normamps=400 emergamps=600
New "Line.ln5591731-3" bus1=m4122658 bus2=l2933135 length=0.001669181 units=km linecode=3PH_H-397_ACSR397_ACSR397_ACSR2/0_ACSR normamps=400 emergamps=600
New "Line.ln5653470-1" bus1=m1026702 bus2=l2729414 length=0.04989807 units=km linecode=3PH_H-2_ACSR2_ACSR2_ACSR2_ACSR normamps=400 emergamps=600
New "Line.ln6017316-1" bus1=l2729430.2 bus2=l2766742.2 length=0.1086413 units=km linecode=1PH-x4_ACSRx4_ACSR normamps=400 emergamps=600
New "Line.ln5926299-1" bus1=m1026972.2 bus2=l2860483.2 length=0.06067714 units=km linecode=1PH-x2_ACSRx2_ACSR normamps=400 emergamps=600
New "Line.ln5683831-1" bus1=l2860490 bus2=l3104134 length=0.06335789 units=km linecode=3PH_H-4_ACSR4_ACSR4_ACSR4_ACSR normamps=400 emergamps=600
New "Line.ln6352700-1" bus1=m1089144.1 bus2=p827522.1 length=0.002591741 units=km linecode=1PH-2_ACSRxx2_ACSR normamps=400 emergamps=600
New "Line.ln6047570-1" bus1=m1089118.1 bus2=l3048208.1 length=0.04529702 units=km linecode=1PH-4_ACSRxx4_WPAL normamps=400 emergamps=600
New "Line.ln5624342-1" bus1=m1108505 bus2=l2955047 length=0.05456149 units=km linecode=3PH_H-397_ACSR397_ACSR397_ACSR2/0_ACSR normamps=400 emergamps=600
New "Line.ln6259992-1" bus1=m1089148.1 bus2=l2766721.1 length=0.04840519 units=km linecode=1PH-4_ACSRxx1/0_TPX normamps=400 emergamps=600
New "Line.ln5841919-1" bus1=m1026745.2 bus2=l3029183.2 length=0.09101653 units=km linecode=1PH-x2_ACSRx2_ACSR normamps=400 emergamps=600
New "Line.ln6380811-1" bus1=l2710512.2 bus2=m1047828.2 length=0.1452169 units=km linecode=1PH-x4_ACSRx4_ACSR normamps=400 emergamps=600
New "Line.ln5683832-1" bus1=m1047342.1 bus2=l3197645.1 length=0.07369806 units=km linecode=1PH-2_ACSRxx2_ACSR normamps=400 emergamps=600
New "Line.ln6077778-1" bus1=m1069192.1 bus2=l3235253.1 length=0.08154157 units=km linecode=1PH-2_ACSRxx2_ACSR normamps=400 emergamps=600
New "Line.ln5561442-2" bus1=l3214071 bus2=m1125952 length=0.05392748 units=km linecode=3PH_H-397_ACSR397_ACSR397_ACSR2/0_ACSR normamps=400 emergamps=600
New "Line.ln6259983-1" bus1=m1027101.2 bus2=l2860480.2 length=0.1639061 units=km linecode=1PH-x2_ACSRx2_ACSR normamps=400 emergamps=600
New "Line.ln5865244-1" bus1=l2710517.1 bus2=m1026646.1 length=0.04880933 units=km linecode=1PH-4_ACSRxx4_ACSR normamps=400 emergamps=600
New "Line.ln6350555-1" bus1=m1069662.2 bus2=l2935547.2 length=0.06117617 units=km linecode=1PH-x2_ACSRx2_ACSR normamps=400 emergamps=600
New "Line.ln5714039-1" bus1=m1026931.1 bus2=l3216336.1 length=0.04918638 units=km linecode=1PH-4_ACSRxx4_ACSR normamps=400 emergamps=600
New "Line.ln5889821-1" bus1=l3142049 bus2=m1108493 length=0.08467017 units=km linecode=3PH_H-397_ACSR397_ACSR397_ACSR2/0_ACSR normamps=400 emergamps=600
New "Line.ln5804791-1" bus1=m1069169 bus2=l3010556 length=0.07335584 units=km linecode=3PH_H-4_ACSR4_ACSR4_ACSR4_WPAL normamps=400 emergamps=600
New "Line.ln5653486-1" bus1=l2991933.3 bus2=l3122837.3 length=0.08327325 units=km linecode=1PH-xx4_ACSR4_ACSR normamps=400 emergamps=600
New "Line.ln5926286-1" bus1=l3216336.1 bus2=l2691936.1 length=0.06694948 units=km linecode=1PH-4_ACSRxx4_ACSR normamps=400 emergamps=600
New "Line.ln6318859-1" bus1=l2897772.1 bus2=l3101814.1 length=0.05644528 units=km linecode=1PH-4_ACSRxx4_ACSR normamps=400 emergamps=600
New "Line.ln5926316-1" bus1=l2766732.2 bus2=m1026485.2 length=0.01373307 units=km linecode=1PH-x2_ACSRx2_ACSR normamps=400 emergamps=600
New "Line.ln5591703-1" bus1=l2804269.2 bus2=l2989564.2 length=0.06207253 units=km linecode=1PH-x4_ACSRx4_ACSR normamps=400 emergamps=600
New "Line.ln5531333-1" bus1=m1126016.1 bus2=l3120534.1 length=0.03553892 units=km linecode=1PH-4_ACSRxx4_ACSR normamps=400 emergamps=600
New "Line.ln6047581-1" bus1=m1026330.2 bus2=l2766726.2 length=0.03008806 units=km linecode=1PH-x4_WPALx4_WPAL normamps=400 emergamps=600
New "Line.ln6349077-1" bus1=p901912.2 bus2=l3195365.2 length=0.03742408 units=km linecode=1PH-x2_ACSRx2_ACSR normamps=400 emergamps=600
New "Line.ln6350574-1" bus1=m1108381 bus2=l3254237 length=0.07595494 units=km linecode=3PH_H-4_ACSR2_ACSR2_ACSR4_ACSR normamps=400 emergamps=600
New "Line.ln6320343-1" bus1=l2804262.1 bus2=l2841639.1 length=0.07467731 units=km linecode=1PH-4_ACSRxx4_ACSR normamps=400 emergamps=600
New "Line.ln81048100-5" bus1=n1230123.2 bus2=l2708744.2 length=0.05580327 units=km linecode=1P_1/0_AXNJ_DB normamps=220 emergamps=220
New "Line.ln6348946-1" bus1=m1069519.2 bus2=p901927.2 length=0.008238711 units=km linecode=1PH-x2_ACSRx2_ACSR normamps=400 emergamps=600
New "Line.ln5744351-1" bus1=l2897790.3 bus2=l2935566.3 length=0.07043366 units=km linecode=1PH-xx2_ACSR2_ACSR normamps=400 emergamps=600
New "Line.ln5472342-1" bus1=m1026931.1 bus2=l3216337.1 length=0.0563314 units=km linecode=1PH-2_ACSRxx2_ACSR normamps=400 emergamps=600
New "Line.ln5621849-1" bus1=p901931.3 bus2=m1069548.3 length=0.004854897 units=km linecode=1PH-xx2_ACSR2_ACSR normamps=400 emergamps=600
New "Line.ln6379375-1" bus1=m1010013.1 bus2=l3120503.1 length=0.0548288 units=km linecode=1PH-2_ACSRxx2_ACSR normamps=400 emergamps=600
New "Line.ln6028890-1" bus1=m1089145 bus2=l3215385 length=0.03596587 units=km linecode=3PH_H-2_ACSR2_ACSR2_ACSR2_ACSR normamps=400 emergamps=600
New "Line.ln6380822-1" bus1=m1026854 bus2=m1026852 length=0.1312277 units=km linecode=3PH_H-2/0_ACSR2/0_ACSR2/0_ACSR2_ACSR normamps=400 emergamps=600
New "Line.ln5835131-1" bus1=l2935549 bus2=m1069420 length=0.09602246 units=km linecode=3PH_H-2/0_ACSR2/0_ACSR2/0_ACSR2_ACSR normamps=400 emergamps=600
New "Line.ln5803262-7" bus1=l3157708.3 bus2=n1137991.3 length=0.01413166 units=km linecode=1PH-xx4_ACSR4_ACSR normamps=400 emergamps=600
New "Line.ln81048089-1" bus1=m1108413.1 bus2=m1108460.1 length=0.1460952 units=km linecode=1P_1/0_AXNJ_DB normamps=220 emergamps=220
New "Line.ln6201699-1" bus1=p827532.1 bus2=m1047326.1 length=0.007292708 units=km linecode=1PH-2_ACSRxx2_ACSR normamps=400 emergamps=600
New "Line.ln5746548-1" bus1=e182732 bus2=m1026760 length=0.009180368 units=km linecode=3PH_H-4_ACSR4_ACSR4_ACSR4_ACSR normamps=400 emergamps=600
New "Line.ln5835174-1" bus1=l3048205.3 bus2=m1108361.3 length=0.1959342 units=km linecode=1PH-xx4_ACSR4_WPAL normamps=400 emergamps=600
New "Line.ln6505947-4" bus1=m3036169.1 bus2=l2673317.1 length=0.002598078 units=km linecode=1PH-4_ACSRxx4_WPAL normamps=400 emergamps=600
New "Line.ln5683833-1" bus1=l3178981.2 bus2=m1047368.2 length=0.2167976 units=km linecode=1PH-x4_ACSRx4_ACSR normamps=400 emergamps=600
New "Line.ln5561439-3" bus1=m1069519 bus2=n1136354 length=0.1512595 units=km linecode=3PH_H-397_ACSR397_ACSR397_ACSR2/0_ACSR normamps=400 emergamps=600
New "Line.ln6109190-1" bus1=l2879794.1 bus2=m1142811.1 length=0.03375599 units=km linecode=1PH-4_ACSRxx4_ACSR normamps=400 emergamps=600
New "Line.ln6258435-2" bus1=m1047702.1 bus2=n1137002.1 length=0.01893935 units=km linecode=1PH-2_ACSRxx2_ACSR normamps=400 emergamps=600
New "Line.ln5804819-1" bus1=m1069565.2 bus2=l2785536.2 length=0.1850108 units=km linecode=1PH-x4_ACSRx4_ACSR normamps=400 emergamps=600
New "Line.ln5593215-1" bus1=l3104114.2 bus2=m1009824.2 length=0.05554508 units=km linecode=1PH-x4_WPALx4_WPAL normamps=400 emergamps=600
New "Line.ln5833717-1" bus1=l2745848 bus2=l2673308 length=0.05755447 units=km linecode=3PH_H-2/0_ACSR2/0_ACSR2/0_ACSR2_ACSR normamps=400 emergamps=600
New "Line.ln6199557-1" bus1=l2673308 bus2=l2991939 length=0.1126097 units=km linecode=3PH_H-2/0_ACSR2/0_ACSR2/0_ACSR2_ACSR normamps=400 emergamps=600
New "Line.ln5744332-1" bus1=l2916606.3 bus2=l2822864.3 length=0.06169847 units=km linecode=1PH-xx4_ACSR4_ACSR normamps=400 emergamps=600
New "Line.ln5558790-1" bus1=m1142851 bus2=196-31070 length=0.01385607 units=km linecode=3PH_H-397_ACSR397_ACSR397_ACSR2/0_ACSR normamps=400 emergamps=600
New "Line.ln6078692-1" bus1=m1209822.3 bus2=m1209823.3 length=0.05698303 units=km linecode=1PH-xx4_ACSR4_ACSR normamps=400 emergamps=600
New "Line.ln5956482-1" bus1=m1069550.2 bus2=m1069551.2 length=0.004148354 units=km linecode=1PH-x4_WPALx4_WPAL normamps=400 emergamps=600
New "Line.ln5593225-1" bus1=l2860483.2 bus2=l3141397.2 length=0.07605067 units=km linecode=1PH-x2_ACSRx2_ACSR normamps=400 emergamps=600
New "Line.ln6900591-26" bus1=l3649299.1 bus2=m3772794.1 length=0.003878988 units=km linecode=1PH-2_ACSRxx2_ACSR normamps=400 emergamps=600
New "Line.ln5952393-1" bus1=p895106.2 bus2=l3048887.2 length=0.04016126 units=km linecode=1PH-x4_ACSRx4_ACSR normamps=400 emergamps=600
New "Line.ln6350531-1" bus1=m1047824.2 bus2=m1047834.2 length=0.4157481 units=km linecode=1PH-x4_ACSRx4_ACSR normamps=400 emergamps=600
New "Line.ln5965099-10" bus1=m1069350 bus2=n1144668 length=0.02674808 units=km linecode=3PH_H-2/0_ACSR2/0_ACSR2/0_ACSR2_ACSR normamps=400 emergamps=600
New "Line.ln6047568-1" bus1=l2879072.2 bus2=m1047441.2 length=0.2303486 units=km linecode=1PH-x4_WPALx4_ACSR normamps=400 emergamps=600
New "Line.ln5926292-1" bus1=m1108274.2 bus2=m1108269.2 length=0.06128805 units=km linecode=1PH-x2_ACSRx2_ACSR normamps=400 emergamps=600
New "Line.ln6380806-1" bus1=l3235244.1 bus2=m1069398.1 length=0.06289584 units=km linecode=1PH-4_ACSRxx4_ACSR normamps=400 emergamps=600
New "Line.ln6341781-3" bus1=n1147862.1 bus2=l2685805.1 length=0.08936615 units=km linecode=1PH-2_ACSRxx2_ACSR normamps=400 emergamps=600
New "Line.ln8979367-1" bus1=m1069247.1 bus2=m1069248.1 length=0.122795 units=km linecode=1P_1/0_AXNJ_DB normamps=220 emergamps=220
New "Line.ln6018340-1" bus1=l2786273.2 bus2=m1108278.2 length=0.1079941 units=km linecode=1PH-x4_ACSRx4_ACSR normamps=400 emergamps=600
New "Line.ln6380847-1" bus1=l3254238 bus2=m1047303 length=0.09931373 units=km linecode=3PH_H-4_ACSR4_ACSR4_ACSR4_ACSR normamps=400 emergamps=600
New "Line.ln8961797-1" bus1=m1047633.3 bus2=l2897554.3 length=0.1798347 units=km linecode=1P_1/0_AXNJ_DB normamps=220 emergamps=220
New "Line.ln6077797-1" bus1=m1069627.2 bus2=l2897791.2 length=0.1385537 units=km linecode=1PH-x4_ACSRx4_ACSR normamps=400 emergamps=600
New "Line.ln6077773-1" bus1=m1089097.2 bus2=m1108270.2 length=0.08312298 units=km linecode=1PH-x4_ACSRx4_WPAL normamps=400 emergamps=600
New "Line.ln5837496-4" bus1=n1142101.1 bus2=l2936214.1 length=0.03694722 units=km linecode=1PH-2_ACSRxx2_ACSR normamps=400 emergamps=600
New "Line.ln5623392-1" bus1=l3066810.3 bus2=l2897769.3 length=0.1296382 units=km linecode=1PH-xx4_ACSR4_ACSR normamps=400 emergamps=600
New "Line.ln5624380-1" bus1=m1209758.2 bus2=m1209753.2 length=0.121091 units=km linecode=1PH-x2_ACSRx2_ACSR normamps=400 emergamps=600
New "Line.ln6422809-2" bus1=m1047528 bus2=l2858166 length=0.004833257 units=km linecode=3PH_H-2/0_ACSR2/0_ACSR2/0_ACSR2_ACSR normamps=400 emergamps=600
New "Line.ln5799561-1" bus1=m1142843 bus2=l3081380 length=0.110589 units=km linecode=3PH_H-397_ACSR397_ACSR397_ACSR2/0_ACSR normamps=400 emergamps=600
New "Line.ln6229818-1" bus1=l2804272.2 bus2=l2841641.2 length=0.07946289 units=km linecode=1PH-x2_ACSRx2_ACSR normamps=400 emergamps=600
New "Line.ln5593230-1" bus1=m1069393.2 bus2=m1069408.2 length=0.06980202 units=km linecode=1PH-x4_ACSRx4_ACSR normamps=400 emergamps=600
New "Line.ln5563901-3" bus1=n1142104 bus2=m1108500 length=0.0454824 units=km linecode=3PH_H-397_ACSR397_ACSR397_ACSR2/0_ACSR normamps=400 emergamps=600
New "Line.ln6320339-1" bus1=l3216348.1 bus2=l2841627.1 length=0.1883185 units=km linecode=1PH-4_WPALxx4_WPAL normamps=400 emergamps=600
New "Line.ln5986927-1" bus1=m1026925.1 bus2=l2916599.1 length=0.01557656 units=km linecode=1PH-4_ACSRxx4_ACSR normamps=400 emergamps=600
New "Line.ln6047567-1" bus1=m1047447.2 bus2=l2954349.2 length=0.05345472 units=km linecode=1PH-x4_WPALx4_WPAL normamps=400 emergamps=600
New "Line.ln5714047-1" bus1=l3235246.2 bus2=l2710512.2 length=0.07720226 units=km linecode=1PH-x4_ACSRx4_ACSR normamps=400 emergamps=600
New "Line.ln5563934-1" bus1=m1125911.2 bus2=l2711224.2 length=0.1054395 units=km linecode=1PH-x4_ACSRx4_ACSR normamps=400 emergamps=600
New "Line.ln6169249-3" bus1=n1147863.3 bus2=l3122817.3 length=0.004395476 units=km linecode=1PH-xx4_ACSR4_ACSR normamps=400 emergamps=600
New "Line.ln6230800-1" bus1=m1186061.2 bus2=l2861223.2 length=0.03647083 units=km linecode=1PH-x4_ACSRx4_ACSR normamps=400 emergamps=600
...
