models/IEEE_8500_Bus-G/Load.DSS
New "Load.138236b0" phases=2 bus1=sx2673305b.1.2 kV=0.208 status=variable model=1 conn=wye kW=3.89 pf=0.97 Vminpu=.88
New "Load.138237b0" phases=2 bus1=sx3048196b.1.2 kV=0.208 status=variable model=1 conn=wye kW=5.84 pf=0.97 Vminpu=.88
New "Load.138258c0" phases=2 bus1=sx2991911c.1.2 kV=0.208 status=variable model=1 conn=wye kW=6.1 pf=0.97 Vminpu=.88
New "Load.138259c0" phases=2 bus1=sx2973158c.1.2 kV=0.208 status=variable model=1 conn=wye kW=6.1 pf=0.97 Vminpu=.88
New "Load.138260a0" phases=2 bus1=sx3048208a.1.2 kV=0.208 status=variable model=1 conn=wye kW=5.32 pf=0.97 Vminpu=.88
New "Load.138262a0" phases=2 bus1=sx3029502a.1.2 kV=0.208 status=variable model=1 conn=wye kW=17.74 pf=0.97 Vminpu=.88
New "Load.138264b0" phases=2 bus1=sx3104125b.1.2 kV=0.208 status=variable model=1 conn=wye kW=9.73 pf=0.97 Vminpu=.88
New "Load.138265a0" phases=2 bus1=sx3160107a.1.2 kV=0.208 status=variable model=1 conn=wye kW=8.87 pf=0.97 Vminpu=.88
New "Load.138294b0" phases=2 bus1=sx2785516b.1.2 kV=0.208 status=variable model=1 conn=wye kW=5.84 pf=0.97 Vminpu=.88
New "Load.138313a0" phases=2 bus1=sx3141400a.1.2 kV=0.208 status=variable model=1 conn=wye kW=3.55 pf=0.97 Vminpu=.88
New "Load.138342c0" phases=2 bus1=sx2897775c.1.2 kV=0.208 status=variable model=1 conn=wye kW=10.17 pf=0.97 Vminpu=.88
New "Load.138343c0" phases=2 bus1=sx3010565c.1.2 kV=0.208 status=variable model=1 conn=wye kW=4.07 pf=0.97 Vminpu=.88
New "Load.138346c0" phases=2 bus1=sx2916609c.1.2 kV=0.208 status=variable model=1 conn=wye kW=6.1 pf=0.97 Vminpu=.88
New "Load.138371c0" phases=2 bus1=sx2879073c.1.2 kV=0.208 status=variable model=1 conn=wye kW=6.1 pf=0.97 Vminpu=.88
New "Load.138372c0" phases=2 bus1=sx3104126c.1.2 kV=0.208 status=variable model=1 conn=wye kW=4.07 pf=0.97 Vminpu=.88
New "Load.138373c0" phases=2 bus1=sx3029503c.1.2 kV=0.208 status=variable model=1 conn=wye kW=6.1 pf=0.97 Vminpu=.88
New "Load.138374c0" phases=2 bus1=sx2691950c.1.2 kV=0.208 status=variable model=1 conn=wye kW=10.17 pf=0.97 Vminpu=.88
New "Load.138379c0" phases=2 bus1=sx2691951c.1.2 kV=0.208 status=variable model=1 conn=wye kW=10.17 pf=0.97 Vminpu=.88
New "Load.138380c0" phases=2 bus1=sx2879076c.1.2 kV=0.208 status=variable model=1 conn=wye kW=4.07 pf=0.97 Vminpu=.88
New "Load.138404c0" phases=2 bus1=sx2841630c.1.2 kV=0.208 status=variable model=1 conn=wye kW=10.17 pf=0.97 Vminpu=.88
New "Load.138405c0" phases=2 bus1=sx2841629c.1.2 kV=0.208 status=variable model=1 conn=wye kW=15.26 pf=0.97 Vminpu=.88
New "Load.138412c0" phases=2 bus1=sx2785523c.1.2 kV=0.208 status=variable model=1 conn=wye kW=6.1 pf=0.97 Vminpu=.88
New "Load.138413c0" phases=2 bus1=sx3216347c.1.2 kV=0.208 status=variable model=1 conn=wye kW=6.1 pf=0.97 Vminpu=.88
New "Load.138416c0" phases=2 bus1=sx3141388c.1.2 kV=0.208 status=variable model=1 conn=wye kW=4.07 pf=0.97 Vminpu=.88
New "Load.138464c0" phases=2 bus1=sx3066801c.1.2 kV=0.208 status=variable model=1 conn=wye kW=4.07 pf=0.97 Vminpu=.88
New "Load.138465c0" phases=2 bus1=sx2879055c.1.2 kV=0.208 status=variable model=1 conn=wye kW=4.07 pf=0.97 Vminpu=.88
New "Load.138466c0" phases=2 bus1=sx2973144c.1.2 kV=0.208 status=variable model=1 conn=wye kW=10.17 pf=0.97 Vminpu=.88
New "Load.138469c0" phases=2 bus1=sx2785518c.1.2 kV=0.208 status=variable model=1 conn=wye kW=6.1 pf=0.97 Vminpu=.88
New "Load.138470c0" phases=2 bus1=sx2766717c.1.2 kV=0.208 status=variable model=1 conn=wye kW=4.07 pf=0.97 Vminpu=.88
New "Load.138472c0" phases=2 bus1=sx2673309c.1.2 kV=0.208 status=variable model=1 conn=wye kW=10.17 pf=0.97 Vminpu=.88
New "Load.138560a0" phases=2 bus1=sx3104113a.1.2 kV=0.208 status=variable model=1 conn=wye kW=8.87 pf=0.97 Vminpu=.88
New "Load.138561a0" phases=2 bus1=sx3104121a.1.2 kV=0.208 status=variable model=1 conn=wye kW=8.87 pf=0.97 Vminpu=.88
New "Load.138562a0" phases=2 bus1=sx2673310a.1.2 kV=0.208 status=variable model=1 conn=wye kW=8.87 pf=0.97 Vminpu=.88
New "Load.138563a0" phases=2 bus1=sx2916627a.1.2 kV=0.208 status=variable model=1 conn=wye kW=8.87 pf=0.97 Vminpu=.88
New "Load.138564a0" phases=2 bus1=sx2804283a.1.2 kV=0.208 status=variable model=1 conn=wye kW=8.87 pf=0.97 Vminpu=.88
New "Load.138565a0" phases=2 bus1=sx3104122a.1.2 kV=0.208 status=variable model=1 conn=wye kW=8.87 pf=0.97 Vminpu=.88
New "Load.138566a0" phases=2 bus1=sx2785519a.1.2 kV=0.208 status=variable model=1 conn=wye kW=8.87 pf=0.97 Vminpu=.88
New "Load.138567a0" phases=2 bus1=sx2748129a.1.2 kV=0.208 status=variable model=1 conn=wye kW=13.3 pf=0.97 Vminpu=.88
New "Load.138569a0" phases=2 bus1=sx2973151a.1.2 kV=0.208 status=variable model=1 conn=wye kW=5.32 pf=0.97 Vminpu=.88
New "Load.138570a0" phases=2 bus1=sx2748146a.1.2 kV=0.208 status=variable model=1 conn=wye kW=5.32 pf=0.97 Vminpu=.88
New "Load.138571a0" phases=2 bus1=sx2991913a.1.2 kV=0.208 status=variable model=1 conn=wye kW=5.32 pf=0.97 Vminpu=.88
New "Load.138573a0" phases=2 bus1=sx3235253a.1.2 kV=0.208 status=variable model=1 conn=wye kW=8.87 pf=0.97 Vminpu=.88
New "Load.138574a0" phases=2 bus1=sx2991907a.1.2 kV=0.208 status=variable model=1 conn=wye kW=8.87 pf=0.97 Vminpu=.88
New "Load.138581a0" phases=2 bus1=sx2879064a.1.2 kV=0.208 status=variable model=1 conn=wye kW=8.87 pf=0.97 Vminpu=.88
New "Load.138585c0" phases=2 bus1=sx3197637c.1.2 kV=0.208 status=variable model=1 conn=wye kW=4.07 pf=0.97 Vminpu=.88
New "Load.138586c0" phases=2 bus1=sx2860487c.1.2 kV=0.208 status=variable model=1 conn=wye kW=6.1 pf=0.97 Vminpu=.88
New "Load.138641c0" phases=2 bus1=sx2841638c.1.2 kV=0.208 status=variable model=1 conn=wye kW=6.1 pf=0.97 Vminpu=.88
New "Load.138642a0" phases=2 bus1=sx3235256a.1.2 kV=0.208 status=variable model=1 conn=wye kW=5.32 pf=0.97 Vminpu=.88
New "Load.138644a0" phases=2 bus1=sx3197630a.1.2 kV=0.208 status=variable model=1 conn=wye kW=8.87 pf=0.97 Vminpu=.88
New "Load.138645b0" phases=2 bus1=sx3104120b.1.2 kV=0.208 status=variable model=1 conn=wye kW=5.84 pf=0.97 Vminpu=.88
New "Load.138646a0" phases=2 bus1=sx2804251a.1.2 kV=0.208 status=variable model=1 conn=wye kW=3.55 pf=0.97 Vminpu=.88
New "Load.138647c0" phases=2 bus1=sx3254210c.1.2 kV=0.208 status=variable model=1 conn=wye kW=6.1 pf=0.97 Vminpu=.88
New "Load.138649a0" phases=2 bus1=sx3048206a.1.2 kV=0.208 status=variable model=1 conn=wye kW=8.87 pf=0.97 Vminpu=.88
New "Load.138650c0" phases=2 bus1=sx2710510c.1.2 kV=0.208 status=variable model=1 conn=wye kW=4.07 pf=0.97 Vminpu=.88
New "Load.138651c0" phases=2 bus1=sx3197628c.1.2 kV=0.208 status=variable model=1 conn=wye kW=10.17 pf=0.97 Vminpu=.88
New "Load.138652c0" phases=2 bus1=sx2766718c.1.2 kV=0.208 status=variable model=1 conn=wye kW=15.26 pf=0.97 Vminpu=.88
New "Load.138655a0" phases=2 bus1=sx3010556a.1.2 kV=0.208 status=variable model=1 conn=wye kW=5.32 pf=0.97 Vminpu=.88
New "Load.138679a0" phases=2 bus1=sx2710520a.1.2 kV=0.208 status=variable model=1 conn=wye kW=5.32 pf=0.97 Vminpu=.88
New "Load.138680a0" phases=2 bus1=sx2710521a.1.2 kV=0.208 status=variable model=1 conn=wye kW=8.87 pf=0.97 Vminpu=.88
New "Load.138684a0" phases=2 bus1=sx3085396a.1.2 kV=0.208 status=variable model=1 conn=wye kW=8.87 pf=0.97 Vminpu=.88
New "Load.138685a0" phases=2 bus1=sx3122813a.1.2 kV=0.208 status=variable model=1 conn=wye kW=5.32 pf=0.97 Vminpu=.88
New "Load.138716c0" phases=2 bus1=sx3254219c.1.2 kV=0.208 status=variable model=1 conn=wye kW=10.17 pf=0.97 Vminpu=.88
New "Load.138717c0" phases=2 bus1=sx3254220c.1.2 kV=0.208 status=variable model=1 conn=wye kW=10.17 pf=0.97 Vminpu=.88
New "Load.138718c0" phases=2 bus1=sx3104134c.1.2 kV=0.208 status=variable model=1 conn=wye kW=10.17 pf=0.97 Vminpu=.88
New "Load.138719a0" phases=2 bus1=sx2860490a.1.2 kV=0.208 status=variable model=1 conn=wye kW=8.87 pf=0.97 Vminpu=.88
New "Load.138720a0" phases=2 bus1=sx3254218a.1.2 kV=0.208 status=variable model=1 conn=wye kW=8.87 pf=0.97 Vminpu=.88
New "Load.138751b0" phases=2 bus1=sx3066818b.1.2 kV=0.208 status=variable model=1 conn=wye kW=9.73 pf=0.97 Vminpu=.88
New "Load.138752b0" phases=2 bus1=sx2785528b.1.2 kV=0.208 status=variable model=1 conn=wye kW=5.84 pf=0.97 Vminpu=.88
New "Load.138753b0" phases=2 bus1=sx2748130b.1.2 kV=0.208 status=variable model=1 conn=wye kW=9.73 pf=0.97 Vminpu=.88
New "Load.138754b0" phases=2 bus1=sx3254212b.1.2 kV=0.208 status=variable model=1 conn=wye kW=14.59 pf=0.97 Vminpu=.88
New "Load.138755b0" phases=2 bus1=sx2785520b.1.2 kV=0.208 status=variable model=1 conn=wye kW=3.89 pf=0.97 Vminpu=.88
New "Load.138769a0" phases=2 bus1=sx2729411a.1.2 kV=0.208 status=variable model=1 conn=wye kW=3.55 pf=0.97 Vminpu=.88
New "Load.138770a0" phases=2 bus1=sx2897781a.1.2 kV=0.208 status=variable model=1 conn=wye kW=3.55 pf=0.97 Vminpu=.88
New "Load.138771a0" phases=2 bus1=sx3197644a.1.2 kV=0.208 status=variable model=1 conn=wye kW=5.32 pf=0.97 Vminpu=.88
New "Load.138776c0" phases=2 bus1=sx3010566c.1.2 kV=0.208 status=variable model=1 conn=wye kW=6.1 pf=0.97 Vminpu=.88
New "Load.138796b0" phases=2 bus1=sx3236011b.1.2 kV=0.208 status=variable model=1 conn=wye kW=5.84 pf=0.97 Vminpu=.88
New "Load.138797b0" phases=2 bus1=sx3198358b.1.2 kV=0.208 status=variable model=1 conn=wye kW=14.59 pf=0.97 Vminpu=.88
New "Load.138798b0" phases=2 bus1=sx3104859b.1.2 kV=0.208 status=variable model=1 conn=wye kW=5.84 pf=0.97 Vminpu=.88
New "Load.157715b0" phases=2 bus1=sx2936275b.1.2 kV=0.208 status=variable model=1 conn=wye kW=3.89 pf=0.97 Vminpu=.88
New "Load.157716b0" phases=2 bus1=sx3179674b.1.2 kV=0.208 status=variable model=1 conn=wye kW=9.73 pf=0.97 Vminpu=.88
New "Load.157717b0" phases=2 bus1=sx2748840b.1.2 kV=0.208 status=variable model=1 conn=wye kW=5.84 pf=0.97 Vminpu=.88
New "Load.157718b0" phases=2 bus1=sx3142099b.1.2 kV=0.208 status=variable model=1 conn=wye kW=9.73 pf=0.97 Vminpu=.88
New "Load.207286c0" phases=2 bus1=sx3011298c.1.2 kV=0.208 status=variable model=1 conn=wye kW=4.07 pf=0.97 Vminpu=.88
New "Load.207287b0" phases=2 bus1=sx2711234b.1.2 kV=0.208 status=variable model=1 conn=wye kW=9.73 pf=0.97 Vminpu=.88
New "Load.207288b0" phases=2 bus1=sx3198355b.1.2 kV=0.208 status=variable model=1 conn=wye kW=3.89 pf=0.97 Vminpu=.88
New "Load.207290a0" phases=2 bus1=sx2879773a.1.2 kV=0.208 status=variable model=1 conn=wye kW=8.87 pf=0.97 Vminpu=.88
New "Load.207291c0" phases=2 bus1=sx2786274c.1.2 kV=0.208 status=variable model=1 conn=wye kW=10.17 pf=0.97 Vminpu=.88
New "Load.207292c0" phases=2 bus1=sx3179682c.1.2 kV=0.208 status=variable model=1 conn=wye kW=6.1 pf=0.97 Vminpu=.88
New "Load.218472a0" phases=2 bus1=sx2936270a.1.2 kV=0.208 status=variable model=1 conn=wye kW=8.87 pf=0.97 Vminpu=.88
New "Load.218473a0" phases=2 bus1=sx3086078a.1.2 kV=0.208 status=variable model=1 conn=wye kW=8.87 pf=0.97 Vminpu=.88
New "Load.218474a0" phases=2 bus1=sx3217056a.1.2 kV=0.208 status=variable model=1 conn=wye kW=17.74 pf=0.97 Vminpu=.88
New "Load.218475a0" phases=2 bus1=sx3217057a.1.2 kV=0.208 status=variable model=1 conn=wye kW=3.55 pf=0.97 Vminpu=.88
New "Load.223655c0" phases=2 bus1=sx2936268c.1.2 kV=0.208 status=variable model=1 conn=wye kW=6.1 pf=0.97 Vminpu=.88
New "Load.223658a0" phases=2 bus1=sx2823592a.1.2 kV=0.208 status=variable model=1 conn=wye kW=1.77 pf=0.97 Vminpu=.88
New "Load.223660c0" phases=2 bus1=sx3160863c.1.2 kV=0.208 status=variable model=1 conn=wye kW=6.1 pf=0.97 Vminpu=.88
New "Load.223661c0" phases=2 bus1=sx2730108c.1.2 kV=0.208 status=variable model=1 conn=wye kW=6.1 pf=0.97 Vminpu=.88
New "Load.223662c0" phases=2 bus1=sx2786204c.1.2 kV=0.208 status=variable model=1 conn=wye kW=15.26 pf=0.97 Vminpu=.88
New "Load.223663c0" phases=2 bus1=sx2936216c.1.2 kV=0.208 status=variable model=1 conn=wye kW=4.07 pf=0.97 Vminpu=.88
New "Load.247036c0" phases=2 bus1=sx3029498c.1.2 kV=0.208 status=variable model=1 conn=wye kW=4.07 pf=0.97 Vminpu=.88
New "Load.247056a0" phases=2 bus1=sx2991912a.1.2 kV=0.208 status=variable model=1 conn=wye kW=5.32 pf=0.97 Vminpu=.88
New "Load.247057a0" phases=2 bus1=sx3104128a.1.2 kV=0.208 status=variable model=1 conn=wye kW=5.32 pf=0.97 Vminpu=.88
New "Load.247058a0" phases=2 bus1=sx2673315a.1.2 kV=0.208 status=variable model=1 conn=wye kW=3.55 pf=0.97 Vminpu=.88
New "Load.247059a0" phases=2 bus1=sx2766721a.1.2 kV=0.208 status=variable model=1 conn=wye kW=8.87 pf=0.97 Vminpu=.88
New "Load.247060a0" phases=2 bus1=sx2991906a.1.2 kV=0.208 status=variable model=1 conn=wye kW=3.55 pf=0.97 Vminpu=.88
New "Load.247061a0" phases=2 bus1=sx2879054a.1.2 kV=0.208 status=variable model=1 conn=wye kW=8.87 pf=0.97 Vminpu=.88
New "Load.247084b0" phases=2 bus1=sx3254211b.1.2 kV=0.208 status=variable model=1 conn=wye kW=9.73 pf=0.97 Vminpu=.88
New "Load.247100b0" phases=2 bus1=sx2729407b.1.2 kV=0.208 status=variable model=1 conn=wye kW=5.84 pf=0.97 Vminpu=.88
New "Load.247105b0" phases=2 bus1=sx2691942b.1.2 kV=0.208 status=variable model=1 conn=wye kW=5.84 pf=0.97 Vminpu=.88
New "Load.247122b0" phases=2 bus1=sx3197629b.1.2 kV=0.208 status=variable model=1 conn=wye kW=5.84 pf=0.97 Vminpu=.88
New "Load.247126b0" phases=2 bus1=sx2879065b.1.2 kV=0.208 status=variable model=1 conn=wye kW=3.89 pf=0.97 Vminpu=.88
New "Load.247160b0" phases=2 bus1=sx0247160b.1.2 kV=0.208 status=variable model=1 conn=wye kW=5.84 pf=0.97 Vminpu=.88
New "Load.247162b0" phases=2 bus1=sx0247162b.1.2 kV=0.208 status=variable model=1 conn=wye kW=5.84 pf=0.97 Vminpu=.88
New "Load.247164b0" phases=2 bus1=sx2766732b.1.2 kV=0.208 status=variable model=1 conn=wye kW=3.89 pf=0.97 Vminpu=.88
New "Load.247170b0" phases=2 bus1=sx2897784b.1.2 kV=0.208 status=variable model=1 conn=wye kW=14.59 pf=0.97 Vminpu=.88
New "Load.247171b0" phases=2 bus1=sx0247171b.1.2 kV=0.208 status=variable model=1 conn=wye kW=5.84 pf=0.97 Vminpu=.88
New "Load.247184c0" phases=2 bus1=sx2936279c.1.2 kV=0.208 status=variable model=1 conn=wye kW=10.17 pf=0.97 Vminpu=.88
New "Load.247185b0" phases=2 bus1=sx3179678b.1.2 kV=0.208 status=variable model=1 conn=wye kW=5.84 pf=0.97 Vminpu=.88
New "Load.251828b0" phases=2 bus1=sx3179650b.1.2 kV=0.208 status=variable model=1 conn=wye kW=5.84 pf=0.97 Vminpu=.88
New "Load.251855c0" phases=2 bus1=sx2730107c.1.2 kV=0.208 status=variable model=1 conn=wye kW=10.17 pf=0.97 Vminpu=.88
New "Load.251856c0" phases=2 bus1=sx3048888c.1.2 kV=0.208 status=variable model=1 conn=wye kW=6.1 pf=0.97 Vminpu=.88
New "Load.251857c0" phases=2 bus1=sx3064514c.1.2 kV=0.208 status=variable model=1 conn=wye kW=6.1 pf=0.97 Vminpu=.88
New "Load.251858c0" phases=2 bus1=sx2861158c.1.2 kV=0.208 status=variable model=1 conn=wye kW=10.17 pf=0.97 Vminpu=.88
New "Load.251859c0" phases=2 bus1=sx2952007c.1.2 kV=0.208 status=variable model=1 conn=wye kW=10.17 pf=0.97 Vminpu=.88
New "Load.251862c0" phases=2 bus1=sx3254873c.1.2 kV=0.208 status=variable model=1 conn=wye kW=6.1 pf=0.97 Vminpu=.88
New "Load.251863c0" phases=2 bus1=sx2745811c.1.2 kV=0.208 status=variable model=1 conn=wye kW=10.17 pf=0.97 Vminpu=.88
New "Load.251865c0" phases=2 bus1=sx3142050c.1.2 kV=0.208 status=variable model=1 conn=wye kW=6.1 pf=0.97 Vminpu=.88
New "Load.251867c0" phases=2 bus1=sx2861157c.1.2 kV=0.208 status=variable model=1 conn=wye kW=10.17 pf=0.97 Vminpu=.88
New "Load.260457b0" phases=2 bus1=sx3086079b.1.2 kV=0.208 status=variable model=1 conn=wye kW=3.89 pf=0.97 Vminpu=.88
New "Load.260458b0" phases=2 bus1=sx2936276b.1.2 kV=0.208 status=variable model=1 conn=wye kW=3.89 pf=0.97 Vminpu=.88
New "Load.260461b0" phases=2 bus1=sx2861223b.1.2 kV=0.208 status=variable model=1 conn=wye kW=9.73 pf=0.97 Vminpu=.88
New "Load.260463b0" phases=2 bus1=sx3086075b.1.2 kV=0.208 status=variable model=1 conn=wye kW=5.84 pf=0.97 Vminpu=.88
New "Load.260464a0" phases=2 bus1=sx2730187a.1.2 kV=0.208 status=variable model=1 conn=wye kW=13.3 pf=0.97 Vminpu=.88
New "Load.260467a0" phases=2 bus1=sx3104856a.1.2 kV=0.208 status=variable model=1 conn=wye kW=5.32 pf=0.97 Vminpu=.88
New "Load.260473a0" phases=2 bus1=sx2861222a.1.2 kV=0.208 status=variable model=1 conn=wye kW=13.3 pf=0.97 Vminpu=.88
New "Load.260474a0" phases=2 bus1=sx2917330a.1.2 kV=0.208 status=variable model=1 conn=wye kW=8.87 pf=0.97 Vminpu=.88
New "Load.260475a0" phases=2 bus1=sx2879794a.1.2 kV=0.208 status=variable model=1 conn=wye kW=13.3 pf=0.97 Vminpu=.88
New "Load.260476a0" phases=2 bus1=sx2936271a.1.2 kV=0.208 status=variable model=1 conn=wye kW=5.32 pf=0.97 Vminpu=.88
New "Load.260479a0" phases=2 bus1=sx2955074a.1.2 kV=0.208 status=variable model=1 conn=wye kW=13.3 pf=0.97 Vminpu=.88
New "Load.260480c0" phases=2 bus1=sx3030199c.1.2 kV=0.208 status=variable model=1 conn=wye kW=10.17 pf=0.97 Vminpu=.88
New "Load.260481c0" phases=2 bus1=sx2730163c.1.2 kV=0.208 status=variable model=1 conn=wye kW=10.17 pf=0.97 Vminpu=.88
New "Load.260484a0" phases=2 bus1=sx2992624a.1.2 kV=0.208 status=variable model=1 conn=wye kW=5.32 pf=0.97 Vminpu=.88
New "Load.260487a0" phases=2 bus1=sx2692654a.1.2 kV=0.208 status=variable model=1 conn=wye kW=5.32 pf=0.97 Vminpu=.88
New "Load.260488a0" phases=2 bus1=sx2842379a.1.2 kV=0.208 status=variable model=1 conn=wye kW=13.3 pf=0.97 Vminpu=.88
New "Load.260491c0" phases=2 bus1=sx2805031c.1.2 kV=0.208 status=variable model=1 conn=wye kW=15.26 pf=0.97 Vminpu=.88
New "Load.260494b0" phases=2 bus1=sx3068944b.1.2 kV=0.208 status=variable model=1 conn=wye kW=14.59 pf=0.97 Vminpu=.88
New "Load.260495b0" phases=2 bus1=sx2767407b.1.2 kV=0.208 status=variable model=1 conn=wye kW=3.89 pf=0.97 Vminpu=.88
New "Load.260496b0" phases=2 bus1=sx2879767b.1.2 kV=0.208 status=variable model=1 conn=wye kW=3.89 pf=0.97 Vminpu=.88
New "Load.260500b0" phases=2 bus1=sx2711224b.1.2 kV=0.208 status=variable model=1 conn=wye kW=3.89 pf=0.97 Vminpu=.88
New "Load.260501b0" phases=2 bus1=sx3142098b.1.2 kV=0.208 status=variable model=1 conn=wye kW=9.73 pf=0.97 Vminpu=.88
New "Load.260502b0" phases=2 bus1=sx2748839b.1.2 kV=0.208 status=variable model=1 conn=wye kW=3.89 pf=0.97 Vminpu=.88
New "Load.260503b0" phases=2 bus1=sx2917310b.1.2 kV=0.208 status=variable model=1 conn=wye kW=5.84 pf=0.97 Vminpu=.88
New "Load.260505c0" phases=2 bus1=sx2861218c.1.2 kV=0.208 status=variable model=1 conn=wye kW=10.17 pf=0.97 Vminpu=.88
New "Load.260508a0" phases=2 bus1=sx2955081a.1.2 kV=0.208 status=variable model=1 conn=wye kW=5.32 pf=0.97 Vminpu=.88
New "Load.260511c0" phases=2 bus1=sx3160878c.1.2 kV=0.208 status=variable model=1 conn=wye kW=6.1 pf=0.97 Vminpu=.88
New "Load.260513c0" phases=2 bus1=sx2917336c.1.2 kV=0.208 status=variable model=1 conn=wye kW=6.1 pf=0.97 Vminpu=.88
New "Load.260514c0" phases=2 bus1=sx2674047c.1.2 kV=0.208 status=variable model=1 conn=wye kW=6.1 pf=0.97 Vminpu=.88
New "Load.260515a0" phases=2 bus1=sx3160865a.1.2 kV=0.208 status=variable model=1 conn=wye kW=8.87 pf=0.97 Vminpu=.88
New "Load.260517c0" phases=2 bus1=sx2767408c.1.2 kV=0.208 status=variable model=1 conn=wye kW=6.1 pf=0.97 Vminpu=.88
New "Load.260518c0" phases=2 bus1=sx3104853c.1.2 kV=0.208 status=variable model=1 conn=wye kW=10.17 pf=0.97 Vminpu=.88
New "Load.260520b0" phases=2 bus1=sx3254915b.1.2 kV=0.208 status=variable model=1 conn=wye kW=1.95 pf=0.97 Vminpu=.88
New "Load.260521b0" phases=2 bus1=sx3048963b.1.2 kV=0.208 status=variable model=1 conn=wye kW=5.84 pf=0.97 Vminpu=.88
New "Load.260527b0" phases=2 bus1=sx2711226b.1.2 kV=0.208 status=variable model=1 conn=wye kW=9.73 pf=0.97 Vminpu=.88
New "Load.260528c0" phases=2 bus1=sx3217052c.1.2 kV=0.208 status=variable model=1 conn=wye kW=10.17 pf=0.97 Vminpu=.88
New "Load.260529c0" phases=2 bus1=sx3217053c.1.2 kV=0.208 status=variable model=1 conn=wye kW=4.07 pf=0.97 Vminpu=.88
New "Load.260532c0" phases=2 bus1=sx3086074c.1.2 kV=0.208 status=variable model=1 conn=wye kW=6.1 pf=0.97 Vminpu=.88
New "Load.260535c0" phases=2 bus1=sx3067507c.1.2 kV=0.208 status=variable model=1 conn=wye kW=15.26 pf=0.97 Vminpu=.88
New "Load.260542a0" phases=2 bus1=sx2955078a.1.2 kV=0.208 status=variable model=1 conn=wye kW=8.87 pf=0.97 Vminpu=.88
New "Load.260543c0" phases=2 bus1=sx2955077c.1.2 kV=0.208 status=variable model=1 conn=wye kW=10.17 pf=0.97 Vminpu=.88
New "Load.260551c0" phases=2 bus1=sx3160872c.1.2 kV=0.208 status=variable model=1 conn=wye kW=15.26 pf=0.97 Vminpu=.88
New "Load.260552a0" phases=2 bus1=sx3198348a.1.2 kV=0.208 status=variable model=1 conn=wye kW=17.74 pf=0.97 Vminpu=.88
New "Load.260553c0" phases=2 bus1=sx2711225c.1.2 kV=0.208 status=variable model=1 conn=wye kW=6.1 pf=0.97 Vminpu=.88
New "Load.260554c0" phases=2 bus1=sx3030200c.1.2 kV=0.208 status=variable model=1 conn=wye kW=6.1 pf=0.97 Vminpu=.88
New "Load.260555a0" phases=2 bus1=sx3048962a.1.2 kV=0.208 status=variable model=1 conn=wye kW=13.3 pf=0.97 Vminpu=.88
New "Load.260558c0" phases=2 bus1=sx3160861c.1.2 kV=0.208 status=variable model=1 conn=wye kW=4.07 pf=0.97 Vminpu=.88
New "Load.260561c0" phases=2 bus1=sx3104850c.1.2 kV=0.208 status=variable model=1 conn=wye kW=10.17 pf=0.97 Vminpu=.88
New "Load.260562a0" phases=2 bus1=sx3251799a.1.2 kV=0.208 status=variable model=1 conn=wye kW=13.3 pf=0.97 Vminpu=.88
New "Load.260567c0" phases=2 bus1=sx2936211c.1.2 kV=0.208 status=variable model=1 conn=wye kW=6.1 pf=0.97 Vminpu=.88
New "Load.260568c0" phases=2 bus1=sx2842329c.1.2 kV=0.208 status=variable model=1 conn=wye kW=6.1 pf=0.97 Vminpu=.88
New "Load.260569c0" phases=2 bus1=sx3104796c.1.2 kV=0.208 status=variable model=1 conn=wye kW=10.17 pf=0.97 Vminpu=.88
New "Load.260572c0" phases=2 bus1=sx3236004c.1.2 kV=0.208 status=variable model=1 conn=wye kW=6.1 pf=0.97 Vminpu=.88
New "Load.260573c0" phases=2 bus1=sx3160896c.1.2 kV=0.208 status=variable model=1 conn=wye kW=6.1 pf=0.97 Vminpu=.88
New "Load.260574c0" phases=2 bus1=sx3123452c.1.2 kV=0.208 status=variable model=1 conn=wye kW=10.17 pf=0.97 Vminpu=.88
New "Load.260575b0" phases=2 bus1=sx3254869b.1.2 kV=0.208 status=variable model=1 conn=wye kW=5.84 pf=0.97 Vminpu=.88
New "Load.260576c0" phases=2 bus1=sx3030126c.1.2 kV=0.208 status=variable model=1 conn=wye kW=10.17 pf=0.97 Vminpu=.88
New "Load.260577c0" phases=2 bus1=sx2767341c.1.2 kV=0.208 status=variable model=1 conn=wye kW=15.26 pf=0.97 Vminpu=.88
New "Load.260581c0" phases=2 bus1=sx3254870c.1.2 kV=0.208 status=variable model=1 conn=wye kW=10.17 pf=0.97 Vminpu=.88
New "Load.260586b0" phases=2 bus1=sx3048887b.1.2 kV=0.208 status=variable model=1 conn=wye kW=14.59 pf=0.97 Vminpu=.88
New "Load.260589b0" phases=2 bus1=sx2955005b.1.2 kV=0.208 status=variable model=1 conn=wye kW=5.84 pf=0.97 Vminpu=.88
New "Load.260590b0" phases=2 bus1=sx3216988b.1.2 kV=0.208 status=variable model=1 conn=wye kW=9.73 pf=0.97 Vminpu=.88
New "Load.260591b0" phases=2 bus1=sx3179607b.1.2 kV=0.208 status=variable model=1 conn=wye kW=9.73 pf=0.97 Vminpu=.88
New "Load.260594a0" phases=2 bus1=sx2898457a.1.2 kV=0.208 status=variable model=1 conn=wye kW=3.55 pf=0.97 Vminpu=.88
New "Load.260595a0" phases=2 bus1=sx2767340a.1.2 kV=0.208 status=fixed model=1 conn=wye kW=26.6 pf=0.97 Vminpu=.88
New "Load.260595b0" phases=2 bus1=sx2767340b.1.2 kV=0.208 status=fixed model=1 conn=wye kW=29.18 pf=0.97 Vminpu=.88
New "Load.260595c0" phases=2 bus1=sx2767340c.1.2 kV=0.208 status=fixed model=1 conn=wye kW=30.52 pf=0.97 Vminpu=.88
New "Load.260598a0" phases=2 bus1=sx3067478a.1.2 kV=0.208 status=variable model=1 conn=wye kW=13.3 pf=0.97 Vminpu=.88
New "Load.260601c0" phases=2 bus1=sx2730149c.1.2 kV=0.208 status=variable model=1 conn=wye kW=6.1 pf=0.97 Vminpu=.88
New "Load.260602b0" phases=2 bus1=sx2989566b.1.2 kV=0.208 status=variable model=1 conn=wye kW=5.84 pf=0.97 Vminpu=.88
New "Load.260605a0" phases=2 bus1=sx2973791a.1.2 kV=0.208 status=variable model=1 conn=wye kW=17.74 pf=0.97 Vminpu=.88
New "Load.260607b0" phases=2 bus1=sx3029055b.1.2 kV=0.208 status=variable model=1 conn=wye kW=14.59 pf=0.97 Vminpu=.88
New "Load.260620c0" phases=2 bus1=sx3067506c.1.2 kV=0.208 status=variable model=1 conn=wye kW=4.07 pf=0.97 Vminpu=.88
...
