models/IEEE_8500_Bus-G/Capacitor.DSS
New "Capacitor.capbank2a" bus1=r20185.1 kv=7.2 kvar=[ 300] phases=1 conn=wye
New "Capacitor.capbank2b" bus1=r20185.2 kv=7.2 kvar=[ 300] phases=1 conn=wye
New "Capacitor.capbank2c" bus1=r20185.3 kv=7.2 kvar=[ 300] phases=1 conn=wye
New "Capacitor.capbank1a" bus1=r42247.1 kv=7.2 kvar=[ 300] phases=1 conn=wye
New "Capacitor.capbank1b" bus1=r42247.2 kv=7.2 kvar=[ 300] phases=1 conn=wye
New "Capacitor.capbank1c" bus1=r42247.3 kv=7.2 kvar=[ 300] phases=1 conn=wye
New "Capacitor.capbank0a" bus1=r42246.1 kv=7.2 kvar=[ 400] phases=1 conn=wye
New "Capacitor.capbank0b" bus1=r42246.2 kv=7.2 kvar=[ 400] phases=1 conn=wye
New "Capacitor.capbank0c" bus1=r42246.3 kv=7.2 kvar=[ 400] phases=1 conn=wye
New "Capacitor.capbank3" bus1=r18242 kv=12.47112 kvar=[ 900] conn=wye
